resultados_barras.csv
Barra,Tensao_pu,Angulo_graus,Correcao_Tensao_QLIM_pu,Tipo_Barra
10,0.9500,-5.9184,0.000000,2
11,0.9500,-5.8464,0.000000,2
12,0.9501,1.4066,0.000000,2
13,0.9934,-4.2648,0.000000,2
14,0.9500,-11.1141,0.000000,2
16,0.9500,-3.0331,0.000000,2
17,0.9907,-9.8415,0.000000,2
18,1.0500,10.8329,0.000000,2
19,1.0370,2.9038,0.000000,2
20,1.0196,6.8411,0.000000,2
21,0.9690,-0.6024,0.000000,2
22,0.9500,2.3538,0.000000,2
23,0.9584,6.5547,0.000000,2
24,0.9501,4.9520,0.000000,2
28,0.9614,11.8477,0.000000,2
30,0.9699,-20.0027,0.000000,2
31,0.9699,-20.0027,0.000000,2
32,0.9500,-12.7282,0.000000,2
35,1.0494,7.9433,0.000000,2
36,0.9500,4.5572,0.000000,2
37,0.9961,-1.8312,0.000000,2
38,0.9500,-24.8447,0.000000,2
41,0.9501,-23.8526,0.000000,2
44,0.9500,-24.8627,0.000000,2
47,0.9501,-23.8526,0.000000,2
48,0.9828,-21.9966,0.000000,2
50,0.9516,-21.5313,0.000000,2
52,1.0024,-22.0852,0.000000,1
53,0.9523,-22.0852,0.000000,2
54,0.9523,-22.0852,0.000000,2
56,0.9554,0.9032,0.000000,1
57,0.9009,0.9283,0.000000,1
58,1.0179,0.9283,0.000000,1
59,1.0137,0.9032,0.000000,1
60,0.9806,10.5667,0.000000,1
61,1.0235,13.5721,0.000000,1
62,1.0224,-5.3043,0.000000,1
63,1.0230,-5.5491,0.000000,1
64,1.0202,-5.2961,0.000000,1
65,1.0157,0.5929,0.000000,1
66,1.0008,0.8568,0.000000,1
67,0.8995,0.9186,0.000000,1
68,1.0177,0.9241,0.000000,1
69,1.0135,7.2482,0.000000,1
70,1.0140,7.2491,0.000000,1
71,1.0136,7.1617,0.000000,1
72,1.0135,-5.9143,0.000000,1
73,0.9868,2.1656,0.000000,1
74,0.9871,2.1665,0.000000,1
75,0.9837,1.8131,0.000000,1
76,0.9702,-14.0325,0.000000,1
77,1.0456,-13.7142,0.000000,1
78,1.0084,-20.7525,0.000000,1
79,0.9184,-13.6999,0.000000,1
80,0.9770,-13.6999,0.000000,1
81,0.9714,-21.5313,0.000000,1
82,1.0098,-20.1544,0.000000,1
84,0.9905,-16.9626,0.000000,1
85,1.0770,-5.4906,0.000000,1
86,1.0437,-21.9966,0.000000,1
87,1.0523,-16.3785,0.000000,1
90,0.9925,-21.9939,0.000000,1
91,0.9936,-24.7397,0.000000,1
92,1.0468,-7.2287,0.000000,1
93,1.0589,-6.6278,0.000000,1
94,1.0612,-6.7851,0.000000,1
95,0.9936,-24.7464,0.000000,1
96,0.9937,-24.7615,0.000000,1
99,1.0592,-1.7349,0.000000,1
100,1.0666,0.6359,0.000000,1
101,1.0854,-10.1329,0.000000,1
102,1.0618,-11.7371,0.000000,1
103,1.0666,-15.2788,0.000000,1
104,1.0543,-14.3556,0.000000,1
105,1.0317,-13.4233,0.000000,1
106,1.0401,-19.6905,0.000000,1
107,1.0345,-21.4384,0.000000,1
108,1.0424,-20.7130,0.000000,1
110,0.9776,-24.8627,0.000000,1
112,1.0874,-9.3641,0.000000,1
113,1.0874,-9.3641,0.000000,1
114,1.0874,-9.3648,0.000000,1
115,1.0000,-3.7954,0.000000,1
116,1.0180,-26.3073,0.000000,1
117,1.0148,2.1881,0.000000,1
118,0.9650,-9.7611,0.000000,1
119,0.9650,-9.7611,0.000000,1
120,0.9985,-14.5706,0.000000,1
121,0.9775,-15.2143,0.000000,1
122,1.0930,-17.0803,0.000000,1
123,0.9996,-18.9090,0.000000,1
124,1.0054,-19.7117,0.000000,1
125,1.0823,-24.8911,0.000000,1
126,1.0060,-25.0258,0.000000,1
127,0.9997,-21.6701,0.000000,1
128,0.9997,-21.6701,0.000000,1
129,0.9957,-22.3810,0.000000,1
130,1.0823,-24.8911,0.000000,1
131,0.9912,-4.6749,0.000000,1
133,0.9914,-24.8290,0.000000,1
134,0.9924,-4.2648,0.000000,1
135,0.9628,-25.5327,0.000000,1
136,0.9907,-9.8415,0.000000,1
137,0.9629,-25.5271,0.000000,1
138,1.0009,-21.3018,0.000000,1
139,0.9736,-21.9781,0.000000,1
140,1.0082,-22.3097,0.000000,1
141,0.9700,-23.0680,0.000000,1
142,0.9701,-22.9184,0.000000,1
143,0.9916,-24.8936,0.000000,1
144,0.9909,-23.4162,0.000000,1
145,0.9911,-24.9000,0.000000,1
146,0.9913,-24.8654,0.000000,1
147,1.0001,-22.0725,0.000000,1
148,0.9716,-25.3902,0.000000,1
149,0.9901,-23.8526,0.000000,1
150,0.9913,-26.6803,0.000000,1
152,0.9794,-26.6650,0.000000,1
153,0.9780,-26.8112,0.000000,1
154,0.9794,-26.6650,0.000000,1
155,0.9780,-26.8112,0.000000,1
158,1.0296,-26.5341,0.000000,1
159,0.9629,-25.5271,0.000000,1
160,0.9396,-25.5997,0.000000,1
161,0.9954,-22.2616,0.000000,1
162,0.9866,-21.0718,0.000000,1
163,0.9571,-21.0718,0.000000,1
164,1.0251,-14.9999,0.000000,1
165,0.9639,-14.9131,0.000000,1
166,0.9633,-25.5997,0.000000,1
167,0.9628,-25.5327,0.000000,1
169,1.0036,-24.1283,0.000000,1
170,1.0277,-14.9554,0.000000,1
171,1.0198,-21.3552,0.000000,1
172,0.9874,-26.1224,0.000000,1
173,1.0304,-24.7767,0.000000,1
174,1.0366,-24.8719,0.000000,1
175,1.0500,-25.1980,0.000000,1
176,1.0029,-19.5163,0.000000,1
177,0.9976,-26.3768,0.000000,1
178,0.9698,-24.6483,0.000000,1
179,0.9775,-24.8447,0.000000,1
180,0.9795,-25.4185,0.000000,1
181,0.9718,-20.1633,0.000000,1
182,0.9875,-16.2596,0.000000,1
183,0.9877,-15.4458,0.000000,1
184,0.9699,-20.0027,0.000000,1
185,0.9757,-9.3156,0.000000,1
186,1.0029,-19.5163,0.000000,1
187,1.0013,-2.5154,0.000000,1
189,1.0050,-15.1099,0.000000,1
190,0.9959,5.1385,0.000000,1
192,0.9716,-25.3902,0.000000,1
194,0.8890,-22.9184,0.000000,1
195,0.8894,-23.0680,0.000000,1
196,0.9220,-19.7117,0.000000,1
197,0.9736,-21.9781,0.000000,1
198,0.8281,-15.2143,0.000000,1
199,0.9913,-26.6803,0.000000,1
200,1.0146,-32.1942,0.000000,1
201,1.0146,-32.1942,0.000000,1
202,1.0145,-32.1836,0.000000,1
203,1.0145,-32.1836,0.000000,1
204,0.9911,-24.9000,0.000000,1
205,0.9913,-24.8654,0.000000,1
206,0.9916,-24.8936,0.000000,1
208,1.0050,-15.1099,0.000000,1
209,0.9914,-24.8290,0.000000,1
210,1.0888,2.9038,0.000000,1
213,1.0198,0.9990,0.000000,1
214,1.0429,1.0972,0.000000,1
216,1.0076,1.4700,0.000000,1
217,1.0305,0.8686,0.000000,1
218,0.9815,-7.3911,0.000000,1
219,1.0002,-7.1510,0.000000,1
220,1.0500,1.8443,0.000000,1
221,1.0044,-14.8601,0.000000,1
222,1.0027,-10.6552,0.000000,1
223,0.9643,-9.8771,0.000000,1
224,0.9629,-10.0937,0.000000,1
225,1.0500,0.0032,0.000000,1
226,0.9907,-9.5240,0.000000,1
227,1.0020,-10.4652,0.000000,1
228,1.0015,-10.2261,0.000000,1
229,1.0372,-38.8244,0.000000,1
230,0.9884,-5.3952,0.000000,1
231,1.0322,-3.8649,0.000000,1
232,1.0027,-10.6552,0.000000,1
233,1.0580,-4.4561,0.000000,1
234,1.0018,-6.2570,0.000000,1
235,1.0459,-1.8312,0.000000,1
236,1.0060,-11.5307,0.000000,1
237,0.9981,-8.3719,0.000000,1
238,1.0036,-6.0169,0.000000,1
239,1.0500,-8.0564,0.000000,1
240,1.0106,-6.2515,0.000000,1
241,1.0015,-6.2515,0.000000,1
242,0.9643,-9.8771,0.000000,1
243,0.9629,-10.0937,0.000000,1
244,0.9929,-11.7630,0.000000,1
...
